Version 4
SHEET 1 2352 1552
WIRE -368 -176 -400 -176
WIRE -224 -176 -288 -176
WIRE -176 -128 -304 -128
WIRE -400 -112 -400 -176
WIRE -400 -112 -480 -112
WIRE -304 -80 -304 -128
WIRE -400 -64 -400 -112
WIRE -336 -64 -400 -64
WIRE -224 -48 -224 -176
WIRE -224 -48 -272 -48
WIRE -192 -48 -224 -48
WIRE -336 -32 -512 -32
WIRE 176 -32 -48 -32
WIRE 320 -32 240 -32
WIRE -304 48 -304 -16
WIRE 544 80 224 80
WIRE 672 80 624 80
WIRE 672 112 672 80
WIRE 224 128 224 80
WIRE -192 144 -192 -48
WIRE -144 144 -192 144
WIRE -48 144 -48 -32
WIRE -48 144 -64 144
WIRE -16 144 -48 144
WIRE 80 144 80 64
WIRE 80 144 64 144
WIRE 128 144 80 144
WIRE 192 144 160 144
WIRE 320 160 320 -32
WIRE 320 160 256 160
WIRE 496 160 320 160
WIRE 128 176 128 144
WIRE 192 176 128 176
WIRE -512 192 -512 -32
WIRE -512 192 -592 192
WIRE 160 192 160 144
WIRE 160 192 80 192
WIRE 496 240 496 160
WIRE 496 240 432 240
WIRE 160 256 160 192
WIRE 320 256 320 160
WIRE 320 256 160 256
WIRE 752 256 528 256
WIRE 896 256 816 256
WIRE -592 288 -592 272
WIRE 224 304 224 192
WIRE 1120 368 800 368
WIRE 1248 368 1200 368
WIRE 1248 400 1248 368
WIRE 800 416 800 368
WIRE 432 432 432 240
WIRE 528 432 528 256
WIRE 528 432 512 432
WIRE 560 432 528 432
WIRE 656 432 656 352
WIRE 656 432 640 432
WIRE 704 432 656 432
WIRE 768 432 736 432
WIRE 80 448 80 272
WIRE 896 448 896 256
WIRE 896 448 832 448
WIRE 1072 448 896 448
WIRE 704 464 704 432
WIRE 768 464 704 464
WIRE 736 480 736 432
WIRE 736 480 656 480
WIRE -592 512 -592 448
WIRE 736 560 736 480
WIRE 896 560 896 448
WIRE 896 560 736 560
WIRE 800 592 800 480
WIRE 1072 608 1072 448
WIRE 1072 608 1008 608
WIRE -592 624 -592 592
WIRE 1328 624 1104 624
WIRE 1472 624 1392 624
WIRE 656 736 656 560
WIRE 1696 736 1376 736
WIRE 1824 736 1776 736
WIRE -592 768 -592 704
WIRE 1824 768 1824 736
WIRE 1376 784 1376 736
WIRE 1008 800 1008 608
WIRE 1104 800 1104 624
WIRE 1104 800 1088 800
WIRE 1136 800 1104 800
WIRE 1232 800 1232 720
WIRE 1232 800 1216 800
WIRE 1280 800 1232 800
WIRE 1344 800 1312 800
WIRE 1472 816 1472 624
WIRE 1472 816 1408 816
WIRE 1584 816 1472 816
WIRE 1280 832 1280 800
WIRE 1344 832 1280 832
WIRE 1312 848 1312 800
WIRE 1312 848 1232 848
WIRE -592 864 -592 848
WIRE 1312 944 1312 848
WIRE 1472 944 1472 816
WIRE 1472 944 1312 944
WIRE 1376 960 1376 848
WIRE -592 1088 -592 1024
WIRE 1232 1104 1232 928
WIRE -592 1200 -592 1168
FLAG 672 112 0
FLAG 224 304 0
FLAG 80 448 0
FLAG 144 64 0
FLAG 1248 400 0
FLAG 800 592 0
FLAG 656 736 0
FLAG 720 352 0
FLAG 1824 768 0
FLAG 1376 960 0
FLAG 1232 1104 0
FLAG 1296 720 0
FLAG -304 48 0
FLAG -96 -128 0
FLAG -560 -112 0
FLAG -592 1280 0
SYMBOL cap 240 -48 R90
WINDOW 0 0 32 VBottom 2
WINDOW 3 32 32 VTop 2
SYMATTR InstName C1
SYMATTR Value 1nF
SYMBOL res -48 128 R90
WINDOW 0 0 56 VBottom 2
WINDOW 3 32 56 VTop 2
SYMATTR InstName R3
SYMATTR Value 7K
SYMBOL battery 528 80 R270
WINDOW 0 32 56 VTop 2
WINDOW 3 -32 56 VBottom 2
SYMATTR InstName V2
SYMATTR Value 5
SYMBOL signal -592 176 R0
WINDOW 3 50 52 Left 2
SYMATTR Value SINE(0.01 0.01 35K)
SYMATTR InstName V3
SYMBOL signal -592 272 R0
WINDOW 3 73 63 Left 2
SYMATTR Value SINE(0.01 0.01 100K)
SYMATTR InstName V4
SYMBOL signal -592 352 R0
WINDOW 3 86 58 Left 2
SYMATTR Value SINE(0.01 0.01 60K)
SYMATTR InstName V5
SYMBOL signal -592 496 R0
WINDOW 3 86 58 Left 2
SYMATTR Value SINE(0.01 0.01 10K)
SYMATTR InstName V6
SYMBOL signal -592 608 R0
WINDOW 3 86 58 Left 2
SYMATTR Value SINE(0.01 0.01 20K)
SYMATTR InstName V7
SYMBOL res 80 128 R90
WINDOW 0 0 56 VBottom 2
WINDOW 3 32 56 VTop 2
SYMATTR InstName R4
SYMATTR Value 7K
SYMBOL res 96 288 R180
WINDOW 0 36 76 Left 2
WINDOW 3 36 40 Left 2
SYMATTR InstName R1
SYMATTR Value 1K
SYMBOL cap 144 48 R90
WINDOW 0 0 32 VBottom 2
WINDOW 3 32 32 VTop 2
SYMATTR InstName C2
SYMATTR Value 1nF
SYMBOL cap 816 240 R90
WINDOW 0 0 32 VBottom 2
WINDOW 3 32 32 VTop 2
SYMATTR InstName C3
SYMATTR Value 1nF
SYMBOL res 528 416 R90
WINDOW 0 0 56 VBottom 2
WINDOW 3 32 56 VTop 2
SYMATTR InstName R5
SYMATTR Value 7K
SYMBOL battery 1104 368 R270
WINDOW 0 32 56 VTop 2
WINDOW 3 -32 56 VBottom 2
SYMATTR InstName V9
SYMATTR Value 5
SYMBOL res 656 416 R90
WINDOW 0 0 56 VBottom 2
WINDOW 3 32 56 VTop 2
SYMATTR InstName R6
SYMATTR Value 7K
SYMBOL res 672 576 R180
WINDOW 0 36 76 Left 2
WINDOW 3 36 40 Left 2
SYMATTR InstName R7
SYMATTR Value 1K
SYMBOL cap 720 336 R90
WINDOW 0 0 32 VBottom 2
WINDOW 3 32 32 VTop 2
SYMATTR InstName C4
SYMATTR Value 1nF
SYMBOL cap 1392 608 R90
WINDOW 0 0 32 VBottom 2
WINDOW 3 32 32 VTop 2
SYMATTR InstName C5
SYMATTR Value 1nF
SYMBOL res 1104 784 R90
WINDOW 0 0 56 VBottom 2
WINDOW 3 32 56 VTop 2
SYMATTR InstName R9
SYMATTR Value 7K
SYMBOL battery 1680 736 R270
WINDOW 0 32 56 VTop 2
WINDOW 3 -32 56 VBottom 2
SYMATTR InstName V11
SYMATTR Value 5
SYMBOL res 1232 784 R90
WINDOW 0 0 56 VBottom 2
WINDOW 3 32 56 VTop 2
SYMATTR InstName R10
SYMATTR Value 7K
SYMBOL res 1248 944 R180
WINDOW 0 36 76 Left 2
WINDOW 3 36 40 Left 2
SYMATTR InstName R11
SYMATTR Value 1K
SYMBOL cap 1296 704 R90
WINDOW 0 0 32 VBottom 2
WINDOW 3 32 32 VTop 2
SYMATTR InstName C6
SYMATTR Value 1nF
SYMBOL res -464 -128 R90
WINDOW 0 0 56 VBottom 2
WINDOW 3 32 56 VTop 2
SYMATTR InstName R21
SYMATTR Value 1K
SYMBOL res -272 -192 R90
WINDOW 0 0 56 VBottom 2
WINDOW 3 32 56 VTop 2
SYMATTR InstName R22
SYMATTR Value 49K
SYMBOL battery -192 -128 R270
WINDOW 0 32 56 VTop 2
WINDOW 3 -32 56 VBottom 2
SYMATTR InstName V22
SYMATTR Value 5
SYMBOL signal -592 752 R0
WINDOW 3 50 52 Left 2
SYMATTR Value SINE(0.01 0.01 40K)
SYMATTR InstName V23
SYMBOL signal -592 848 R0
WINDOW 3 73 63 Left 2
SYMATTR Value SINE(0.01 0.01 50K)
SYMATTR InstName V24
SYMBOL signal -592 928 R0
WINDOW 3 86 58 Left 2
SYMATTR Value SINE(0.01 0.01 75K)
SYMATTR InstName V25
SYMBOL signal -592 1072 R0
WINDOW 3 86 58 Left 2
SYMATTR Value SINE(0.01 0.01 85K)
SYMATTR InstName V26
SYMBOL signal -592 1184 R0
WINDOW 3 86 58 Left 2
SYMATTR Value SINE(0.01 0.01 120K)
SYMATTR InstName V27
SYMBOL Opamps/opamp2 -304 -112 R0
SYMATTR InstName U1
SYMATTR Value LM324
SYMBOL Opamps/opamp2 224 96 R0
SYMATTR InstName U2
SYMATTR Value LM324
SYMBOL Opamps/opamp2 800 384 R0
SYMATTR InstName U3
SYMATTR Value LM324
SYMBOL Opamps/opamp2 1376 752 R0
SYMATTR InstName U4
SYMATTR Value LM324
TEXT -288 440 Left 2 !.tran 0 10 0 0.01m
TEXT 248 1072 Left 2 !.include LM324.txt
